/*--------------------------------*- C++ -*----------------------------------*\
| =========                 |                                                 |
| \\      /  F ield         | OpenFOAM: The Open Source CFD Toolbox           |
|  \\    /   O peration     | Version:  v2106                                 |
|   \\  /    A nd           | Website:  www.openfoam.com                      |
|    \\/     M anipulation  |                                                 |
\*---------------------------------------------------------------------------*/
FoamFile
{
    version     2.0;
    format      ascii;
    class       dictionary;
    object      blockMeshDict;
}
// * * * * * * * * * * * * * * * * * * * * * * * * * * * * * * * * * * * * * //

scale   1;

vertices
(
    (0 0 0)    // 0
    (1 0 0)    // 1
    (1 1 0)    // 2
    (0 1 0)    // 3
    (0 0 0.1)  // 4
    (1 0 0.1)  // 5
    (1 1 0.1)  // 6
    (0 1 0.1)  // 7
);

blocks
(
    hex (0 1 2 3 4 5 6 7) (20 1 1) simpleGrading (1 1 1)
);

edges
(
);

boundary
(
    left
    {
        type patch;
        faces
        (
            (0 3 7 4)
        );
    }
    right
    {
        type patch;
        faces
        (
            (1 2 6 5)
        );
    }
    frontAndBack
    {
        type empty;
        faces
        (
            (4 5 0 1)
            (3 2 6 7)
            (0 1 2 3)
            (4 5 6 7)
        );
    }
);


// ************************************************************************* //
